Version 4
SHEET 1 1376 680
WIRE 112 -32 48 -32
WIRE 448 -32 112 -32
WIRE 656 -32 448 -32
WIRE 448 16 448 -32
WIRE 656 16 656 -32
WIRE 48 112 48 -32
WIRE 448 144 448 80
WIRE 448 144 416 144
WIRE 512 144 448 144
WIRE 624 144 592 144
WIRE 656 144 656 80
WIRE 656 144 624 144
WIRE 416 176 416 144
WIRE 448 208 448 144
WIRE 656 208 656 144
WIRE 48 336 48 192
WIRE 144 336 48 336
WIRE 448 336 448 272
WIRE 448 336 144 336
WIRE 656 336 656 272
WIRE 656 336 448 336
FLAG 416 176 0
FLAG 624 144 o
FLAG 112 -32 in+
FLAG 144 336 in-
SYMBOL diode 640 16 R0
SYMATTR InstName D1
SYMATTR Value DVcte
SYMBOL voltage 48 96 R0
WINDOW 123 0 0 Left 0
WINDOW 39 0 0 Left 0
SYMATTR InstName V1
SYMATTR Value SINE(0 16.97 60)
SYMBOL res 608 128 R90
WINDOW 0 0 56 VBottom 2
WINDOW 3 32 56 VTop 2
SYMATTR InstName R1
SYMATTR Value 100
SYMBOL diode 432 208 R0
SYMATTR InstName D2
SYMATTR Value DVcte
SYMBOL diode 672 272 R180
WINDOW 0 24 64 Left 2
WINDOW 3 24 0 Left 2
SYMATTR InstName D3
SYMATTR Value DVcte
SYMBOL diode 464 80 R180
WINDOW 0 24 64 Left 2
WINDOW 3 24 0 Left 2
SYMATTR InstName D4
SYMATTR Value DVcte
TEXT 896 64 Left 1 !.tran 0 33.33m
TEXT 896 -48 Left 1 !.model DVcte D(Ron=0.0001 Roff=100G Vfwd=0.7)
TEXT 896 -80 Left 2 ;Modelo de caida constante
TEXT 896 32 Left 2 ;Parametros de simulación
TEXT 896 144 Left 2 ;Mediciones
TEXT 896 176 Left 1 !.meas Vo_avg AVG V(o)\n.meas I_max MAX I(R1)
LINE Normal 1296 48 896 48
LINE Normal 1296 48 1296 48 2
LINE Normal 1296 48 1296 48 2
LINE Normal 1296 160 896 160
LINE Normal 1296 -64 896 -64
